Circuit: * C:\Users\tonia\OneDrive\Documents\LTspiceXVII\domaci\1N4148.asc


Date: Thu Dec 09 12:21:01 2021
Total elapsed time: 0.142 seconds.

tnom = 27
temp = 27
method = trap
totiter = 2007
traniter = 0
tranpoints = 0
accept = 0
rejected = 0
matrix size = 4
fillins = 0
solver = Normal
Matrix Compiler1:       6 opcodes  0.1/[0.1]/0.1
Matrix Compiler2: 248 bytes object code size  0.1/0.2/[0.1]

