Circuit: * C:\Users\tonia\OneDrive\Documents\LTspiceXVII\domaci\1N5817.asc


Date: Thu Dec 09 12:26:19 2021
Total elapsed time: 0.078 seconds.

tnom = 27
temp = 27
method = trap
totiter = 2008
traniter = 0
tranpoints = 0
accept = 0
rejected = 0
matrix size = 4
fillins = 0
solver = Normal
Matrix Compiler1:       6 opcodes  0.1/[0.1]/0.1
Matrix Compiler2: off  [0.1]/0.2/0.1

