Circuit: * C:\Users\tonia\OneDrive\Documents\LTspiceXVII\domaci\BZX84B27VL.asc


Date: Thu Dec 09 16:23:23 2021
Total elapsed time: 0.394 seconds.

tnom = 27
temp = 27
method = trap
totiter = 7036
traniter = 0
tranpoints = 0
accept = 0
rejected = 0
matrix size = 4
fillins = 0
solver = Normal
Matrix Compiler1:       6 opcodes  0.1/[0.1]/0.1
Matrix Compiler2: 248 bytes object code size  0.1/0.2/[0.1]

